* PSpice Model Editor - Version 17.4.0
*$
.model Dbreak D Is=1e-14 Cjo=.1pF Rs=.1 Vj=3V
*$
